<?xml version="1.0" encoding="UTF-8"?>

<!-- generated on 2025-05-09 13:08:11 by Eclipse SUMO netedit Version 1.22.0
-->

<routes xmlns:xsi="http://www.w3.org/2001/XMLSchema-instance" xsi:noNamespaceSchemaLocation="http://sumo.dlr.de/xsd/routes_file.xsd">
    <!-- Vehicles, persons and containers (sorted by depart) -->
    <trip id="t_0" depart="0.00" from="31#0" to="27#2"/>
    <trip id="t_1" depart="0.00" from="-27#2" to="-31#0"/>
    <trip id="t_2" depart="0.00" from="5" to="1#3"/>
    <trip id="t_3" depart="0.00" from="-1#3" to="-5"/>
    <flow id="f_0" begin="0.00" from="31#0" to="27#2" end="3600.00" vehsPerHour="1800"/>
    <flow id="f_1" begin="0.00" from="-27#2" to="-31#0" end="3600.00" vehsPerHour="1800"/>
    <flow id="f_2" begin="0.00" from="-1#3" to="-5" end="3600.00" vehsPerHour="1800"/>
    <flow id="f_3" begin="0.00" from="5" to="1#3" end="3600.00" vehsPerHour="1800"/>
    <flow id="f_4" begin="0.00" from="-1#3" to="-31#0" end="3600.00" vehsPerHour="1800"/>
    <flow id="f_5" begin="0.00" from="31#0" to="-5" end="3600.00" vehsPerHour="1800"/>
    <personFlow id="pf_0" begin="0.00" departPos="80.33" end="3600.00" personsPerHour="1800">
        <walk edges="31#0 27#2"/>
    </personFlow>
    <personFlow id="pf_1" begin="0.00" departPos="47.29" end="3600.00" personsPerHour="1800">
        <walk edges="-27#2 -31#0"/>
    </personFlow>
    <personFlow id="pf_2" begin="0.00" departPos="109.44" end="3600.00" personsPerHour="1800">
        <walk edges="-1#3 -5"/>
    </personFlow>
    <personFlow id="pf_3" begin="0.00" departPos="217.21" end="3600.00" personsPerHour="1800">
        <walk edges="5 1#3"/>
    </personFlow>
</routes>
