<?xml version="1.0" encoding="UTF-8"?>

<!-- generated on 2025-05-01 12:54:31 by Eclipse SUMO netedit Version 1.22.0
-->

<routes xmlns:xsi="http://www.w3.org/2001/XMLSchema-instance" xsi:noNamespaceSchemaLocation="http://sumo.dlr.de/xsd/routes_file.xsd">
    <!-- Vehicles, persons and containers (sorted by depart) -->
    <personFlow id="pf_0" begin="0.00" end="3600.00" personsPerHour="1000">
        <personTrip from="5" to="1#3"/>
    </personFlow>
    <personFlow id="pf_1" begin="0.00" end="3600.00" personsPerHour="1000">
        <personTrip from="-1#3" to="-5"/>
    </personFlow>
    <personFlow id="pf_2" begin="0.00" end="3600.00" personsPerHour="1000">
        <personTrip from="31#0" to="27#2"/>
    </personFlow>
    <personFlow id="pf_3" begin="0.00" end="3600.00" personsPerHour="1000">
        <personTrip from="-27#2" to="-31#0"/>
    </personFlow>
</routes>
