<?xml version="1.0" encoding="UTF-8"?>

<!-- generated on 2025-04-17 21:56:44 by Eclipse SUMO netedit Version 1.22.0
-->

<routes xmlns:xsi="http://www.w3.org/2001/XMLSchema-instance" xsi:noNamespaceSchemaLocation="http://sumo.dlr.de/xsd/routes_file.xsd">
    <!-- Vehicles, persons and containers (sorted by depart) -->
    <person id="p_0" depart="0.00">
        <personTrip from="31#0" to="27#2"/>
    </person>
    <person id="p_1" depart="0.00">
        <personTrip from="31#0" to="27#2"/>
    </person>
    <person id="p_2" depart="0.00">
        <personTrip from="31#0" to="-27#2"/>
    </person>
    <person id="p_3" depart="0.00">
        <personTrip from="31#0" to="27#2"/>
    </person>
    <person id="p_4" type="DEFAULT_BIKETYPE" depart="0.00">
        <personTrip from="31#0" to="1#3"/>
    </person>
    <person id="p_5" type="DEFAULT_BIKETYPE" depart="0.00">
        <personTrip from="31#0" to="27#2"/>
    </person>
    <person id="p_6" type="DEFAULT_CONTAINERTYPE" depart="0.00">
        <personTrip from="31#0" to="-5"/>
    </person>
</routes>
