<?xml version="1.0" encoding="UTF-8"?>

<!-- generated on 2025-05-09 13:15:41 by Eclipse SUMO netedit Version 1.22.0
<neteditConfiguration xmlns:xsi="http://www.w3.org/2001/XMLSchema-instance" xsi:noNamespaceSchemaLocation="http://sumo.dlr.de/xsd/neteditConfiguration.xsd">

    <input>
        <sumocfg-file value="/home/carla/digital_twins/carla/Co-Simulation/Sumo/demand1.sumocfg"/>
        <additional-files value=""/>
        <route-files value="/home/carla/digital_twins/carla/Co-Simulation/Sumo/demand1.rou.xml"/>
        <sumo-net-file value="/home/carla/digital_twins/carla/Co-Simulation/Sumo/util/net.net.xml"/>
    </input>

    <output>
        <output-file value="/home/carla/digital_twins/carla/Co-Simulation/Sumo/util/net.net.xml"/>
    </output>

    <processing>
        <geometry.min-radius.fix.railways value="false"/>
        <geometry.max-grade.fix value="false"/>
        <offset.disable-normalization value="true"/>
        <lefthand value="0"/>
    </processing>

    <junctions>
        <no-internal-links value="false"/>
        <no-turnarounds value="true"/>
        <junctions.corner-detail value="5"/>
        <junctions.limit-turn-speed value="5.50"/>
        <rectangular-lane-cut value="1"/>
    </junctions>

    <pedestrian>
        <walkingareas value="0"/>
    </pedestrian>

</neteditConfiguration>
-->

<net version="1.20" junctionCornerDetail="5" rectangularLaneCut="true" limitTurnSpeed="5.50" xmlns:xsi="http://www.w3.org/2001/XMLSchema-instance" xsi:noNamespaceSchemaLocation="http://sumo.dlr.de/xsd/net_file.xsd">

    <location netOffset="331.16,-170.28" convBoundary="0.00,0.00,517.58,280.47" origBoundary="0.000000,0.000000,0.000000,0.000000" projParameter="+proj=tmerc +lat_0=40.80825732259184 +lon_0=-73.95665195105859 +k=1 +x_0=0 +y_0=0 +datum=WGS84 +units=m +geoidgrids=egm96_15.gtx +vunits=m +no_defs "/>

    <edge id=":0.begin_0" function="internal">
        <lane id=":0.begin_0_0" index="0" disallow="pedestrian tram rail_urban rail rail_electric rail_fast ship cable_car subway" speed="3.82" length="5.11" width="3.50" shape="513.65,145.95 514.89,146.93 515.25,147.83 514.75,148.67 513.37,149.43"/>
    </edge>
    <edge id=":0.begin_w0" function="walkingarea">
        <lane id=":0.begin_w0_0" index="0" allow="pedestrian" speed="2.78" length="26.54" width="5.06" shape="512.59,158.78 512.30,162.27 514.85,131.56 514.43,136.60"/>
    </edge>
    <edge id=":10.end_0" function="internal">
        <lane id=":10.end_0_0" index="0" disallow="pedestrian tram rail_urban rail rail_electric rail_fast ship cable_car subway" speed="3.82" length="5.11" width="3.50" shape="52.24,9.76 53.12,8.45 54.00,8.02 54.87,8.46 55.74,9.78"/>
    </edge>
    <edge id=":10.end_w0" function="walkingarea">
        <lane id=":10.end_w0_0" index="0" allow="pedestrian" speed="2.78" length="11.26" width="2.00" shape="58.62,9.79 60.62,9.80 47.36,9.74 49.36,9.75"/>
    </edge>
    <edge id=":11.begin_0" function="internal">
        <lane id=":11.begin_0_0" index="0" disallow="pedestrian tram rail_urban rail rail_electric rail_fast ship cable_car subway" speed="3.82" length="5.11" width="3.50" shape="517.58,71.93 518.89,72.80 519.33,73.68 518.89,74.55 517.58,75.43"/>
    </edge>
    <edge id=":11.begin_w0" function="walkingarea">
        <lane id=":11.begin_w0_0" index="0" allow="pedestrian" speed="2.78" length="20.07" width="3.50" shape="517.60,81.31 517.61,83.96 517.55,60.82 517.55,64.32"/>
    </edge>
    <edge id=":112_0" function="internal">
        <lane id=":112_0_0" index="0" allow="pedestrian" speed="6.64" length="8.85" width="2.00" shape="475.97,247.20 473.60,247.52 471.81,248.50 470.60,250.14 469.96,252.44">
            <param key="origId" value="146_-2"/>
        </lane>
        <lane id=":112_0_1" index="1" disallow="all" speed="7.15" length="10.78" width="0.63" shape="475.97,245.88 473.09,246.28 470.91,247.47 469.43,249.47 468.66,252.27">
            <param key="origId" value="146_-1"/>
        </lane>
    </edge>
    <edge id=":112_2" function="internal">
        <lane id=":112_2_0" index="0" disallow="all" speed="17.88" length="20.50" width="0.50" shape="475.97,245.32 455.47,245.27">
            <param key="origId" value="155_2"/>
        </lane>
    </edge>
    <edge id=":112_3" function="internal">
        <lane id=":112_3_0" index="0" disallow="pedestrian tram rail_urban rail rail_electric rail_fast ship cable_car subway" speed="8.52" length="4.46" width="3.50" shape="475.98,243.32 472.09,243.85 471.62,244.11">
            <param key="origId" value="138_1"/>
        </lane>
    </edge>
    <edge id=":112_4" function="internal">
        <lane id=":112_4_0" index="0" disallow="pedestrian tram rail_urban rail rail_electric rail_fast ship cable_car subway" speed="17.88" length="20.50" width="3.50" shape="475.98,243.32 455.48,243.27">
            <param key="origId" value="155_1"/>
        </lane>
    </edge>
    <edge id=":112_5" function="internal">
        <lane id=":112_5_0" index="0" disallow="pedestrian tram rail_urban rail rail_electric rail_fast ship cable_car subway" speed="8.82" length="5.27" width="3.50" shape="475.98,243.32 470.76,242.55">
            <param key="origId" value="115_1"/>
        </lane>
    </edge>
    <edge id=":112_24" function="internal">
        <lane id=":112_24_0" index="0" disallow="pedestrian tram rail_urban rail rail_electric rail_fast ship cable_car subway" speed="8.52" length="10.08" width="3.50" shape="471.62,244.11 469.15,245.46 467.16,248.16 466.11,251.93">
            <param key="origId" value="138_1"/>
        </lane>
    </edge>
    <edge id=":112_25" function="internal">
        <lane id=":112_25_0" index="0" disallow="pedestrian tram rail_urban rail rail_electric rail_fast ship cable_car subway" speed="8.82" length="13.70" width="3.50" shape="470.76,242.55 467.25,240.27 465.44,236.47 465.34,231.16">
            <param key="origId" value="115_1"/>
        </lane>
    </edge>
    <edge id=":112_6" function="internal">
        <lane id=":112_6_0" index="0" allow="pedestrian" speed="5.08" length="5.99" width="2.00" shape="472.67,232.07 472.70,233.76 473.26,234.97 474.36,235.70 475.99,235.94">
            <param key="origId" value="114_-2"/>
        </lane>
        <lane id=":112_6_1" index="1" disallow="all" speed="5.73" length="8.30" width="0.63" shape="471.36,231.91 471.40,234.24 472.19,235.91 473.72,236.92 475.99,237.26">
            <param key="origId" value="114_-1"/>
        </lane>
    </edge>
    <edge id=":112_8" function="internal">
        <lane id=":112_8_0" index="0" disallow="all" speed="17.88" length="20.53" width="0.50" shape="470.80,231.84 468.10,252.19">
            <param key="origId" value="126_2"/>
        </lane>
    </edge>
    <edge id=":112_9" function="internal">
        <lane id=":112_9_0" index="0" disallow="pedestrian tram rail_urban rail rail_electric rail_fast ship cable_car subway" speed="7.36" length="12.82" width="3.50" shape="468.82,231.60 468.88,235.19 470.10,237.76 472.47,239.30 475.98,239.82">
            <param key="origId" value="113_1"/>
        </lane>
    </edge>
    <edge id=":112_10" function="internal">
        <lane id=":112_10_0" index="0" disallow="pedestrian tram rail_urban rail rail_electric rail_fast ship cable_car subway" speed="17.88" length="20.51" width="3.50" shape="468.82,231.60 466.11,251.93">
            <param key="origId" value="126_1"/>
        </lane>
    </edge>
    <edge id=":112_11" function="internal">
        <lane id=":112_11_0" index="0" disallow="pedestrian tram rail_urban rail rail_electric rail_fast ship cable_car subway" speed="9.80" length="19.72" width="3.50" shape="468.82,231.60 467.44,236.71 464.76,240.36 460.77,242.55 455.48,243.27">
            <param key="origId" value="130_1"/>
        </lane>
    </edge>
    <edge id=":112_12" function="internal">
        <lane id=":112_12_0" index="0" allow="pedestrian" speed="6.61" length="8.83" width="2.00" shape="455.49,235.89 457.88,235.57 459.67,234.60 460.88,232.97 461.49,230.69">
            <param key="origId" value="135_2"/>
        </lane>
        <lane id=":112_12_1" index="1" disallow="all" speed="7.12" length="10.77" width="0.63" shape="455.49,237.21 458.39,236.81 460.58,235.62 462.05,233.64 462.80,230.85">
            <param key="origId" value="135_1"/>
        </lane>
    </edge>
    <edge id=":112_14" function="internal">
        <lane id=":112_14_0" index="0" disallow="all" speed="17.88" length="20.50" width="0.50" shape="455.49,237.77 475.99,237.82">
            <param key="origId" value="154_-2"/>
        </lane>
    </edge>
    <edge id=":112_15" function="internal">
        <lane id=":112_15_0" index="0" disallow="pedestrian tram rail_urban rail rail_electric rail_fast ship cable_car subway" speed="8.50" length="4.49" width="3.50" shape="455.48,239.77 459.40,239.24 459.87,238.98">
            <param key="origId" value="127_-1"/>
        </lane>
    </edge>
    <edge id=":112_16" function="internal">
        <lane id=":112_16_0" index="0" disallow="pedestrian tram rail_urban rail rail_electric rail_fast ship cable_car subway" speed="17.88" length="20.50" width="3.50" shape="455.48,239.77 475.98,239.82">
            <param key="origId" value="154_-1"/>
        </lane>
    </edge>
    <edge id=":112_17" function="internal">
        <lane id=":112_17_0" index="0" disallow="pedestrian tram rail_urban rail rail_electric rail_fast ship cable_car subway" speed="8.80" length="5.31" width="3.50" shape="455.48,239.77 460.74,240.54">
            <param key="origId" value="157_-1"/>
        </lane>
    </edge>
    <edge id=":112_26" function="internal">
        <lane id=":112_26_0" index="0" disallow="pedestrian tram rail_urban rail rail_electric rail_fast ship cable_car subway" speed="8.50" length="10.07" width="3.50" shape="459.87,238.98 462.34,237.63 464.33,234.94 465.34,231.16">
            <param key="origId" value="127_-1"/>
        </lane>
    </edge>
    <edge id=":112_27" function="internal">
        <lane id=":112_27_0" index="0" disallow="pedestrian tram rail_urban rail rail_electric rail_fast ship cable_car subway" speed="8.80" length="13.71" width="3.50" shape="460.74,240.54 464.26,242.82 466.05,246.62 466.11,251.93">
            <param key="origId" value="157_-1"/>
        </lane>
    </edge>
    <edge id=":112_18" function="internal">
        <lane id=":112_18_0" index="0" allow="pedestrian" speed="5.05" length="5.96" width="2.00" shape="458.80,250.96 458.78,249.30 458.22,248.11 457.11,247.39 455.47,247.15">
            <param key="origId" value="156_-2"/>
        </lane>
        <lane id=":112_18_1" index="1" disallow="all" speed="5.70" length="8.29" width="0.63" shape="460.10,251.13 460.08,248.82 459.29,247.17 457.76,246.17 455.47,245.83">
            <param key="origId" value="156_-1"/>
        </lane>
    </edge>
    <edge id=":112_20" function="internal">
        <lane id=":112_20_0" index="0" disallow="all" speed="17.88" length="20.47" width="0.50" shape="460.66,251.21 463.36,230.92">
            <param key="origId" value="125_-2"/>
        </lane>
    </edge>
    <edge id=":112_21" function="internal">
        <lane id=":112_21_0" index="0" disallow="pedestrian tram rail_urban rail rail_electric rail_fast ship cable_car subway" speed="7.34" length="12.82" width="3.50" shape="462.65,251.47 462.60,247.89 461.40,245.33 459.02,243.79 455.48,243.27">
            <param key="origId" value="162_-1"/>
        </lane>
    </edge>
    <edge id=":112_22" function="internal">
        <lane id=":112_22_0" index="0" disallow="pedestrian tram rail_urban rail rail_electric rail_fast ship cable_car subway" speed="17.88" length="20.48" width="3.50" shape="462.65,251.47 465.34,231.16">
            <param key="origId" value="125_-1"/>
        </lane>
    </edge>
    <edge id=":112_23" function="internal">
        <lane id=":112_23_0" index="0" disallow="pedestrian tram rail_urban rail rail_electric rail_fast ship cable_car subway" speed="9.83" length="19.67" width="3.50" shape="462.65,251.47 464.06,246.36 466.75,242.72 470.73,240.54 475.98,239.82">
            <param key="origId" value="141_-1"/>
        </lane>
    </edge>
    <edge id=":112_w0" function="walkingarea">
        <lane id=":112_w0_0" index="0" allow="pedestrian" speed="2.78" length="7.97" width="2.00" shape="468.97,252.31 470.95,252.57 475.97,248.20 475.97,246.20 474.06,246.37 472.44,246.87 471.13,247.72 470.11,248.91 469.39,250.44"/>
    </edge>
    <edge id=":112_w1" function="walkingarea">
        <lane id=":112_w1_0" index="0" allow="pedestrian" speed="2.78" length="5.10" width="2.00" shape="475.99,236.94 475.99,234.94 473.66,232.19 471.67,231.95 471.62,233.47 471.88,234.72 472.45,235.69 473.32,236.38 474.50,236.80"/>
    </edge>
    <edge id=":112_w2" function="walkingarea">
        <lane id=":112_w2_0" index="0" allow="pedestrian" speed="2.78" length="7.94" width="2.00" shape="462.49,230.81 460.50,230.57 455.50,234.89 455.49,236.89 457.42,236.73 459.04,236.22 460.36,235.38 461.37,234.19 462.08,232.67"/>
    </edge>
    <edge id=":112_w3" function="walkingarea">
        <lane id=":112_w3_0" index="0" allow="pedestrian" speed="2.78" length="5.06" width="2.00" shape="455.47,246.15 455.46,248.15 457.81,250.83 459.79,251.09 459.85,249.58 459.60,248.35 459.04,247.39 458.16,246.70 456.97,246.29"/>
    </edge>
    <edge id=":13.begin_0" function="internal">
        <lane id=":13.begin_0_0" index="0" disallow="pedestrian tram rail_urban rail rail_electric rail_fast ship cable_car subway" speed="3.82" length="5.11" width="3.50" shape="9.91,242.25 8.60,241.37 8.16,240.50 8.60,239.62 9.91,238.75"/>
    </edge>
    <edge id=":13.begin_w0" function="walkingarea">
        <lane id=":13.begin_w0_0" index="0" allow="pedestrian" speed="2.78" length="11.26" width="2.00" shape="9.92,235.87 9.92,233.87 9.90,247.13 9.90,245.13"/>
    </edge>
    <edge id=":16.end_0" function="internal">
        <lane id=":16.end_0_0" index="0" disallow="pedestrian tram rail_urban rail rail_electric rail_fast ship cable_car subway" speed="3.82" length="5.11" width="3.50" shape="490.16,239.85 491.47,240.73 491.91,241.60 491.47,242.48 490.16,243.35"/>
    </edge>
    <edge id=":16.end_w0" function="walkingarea">
        <lane id=":16.end_w0_0" index="0" allow="pedestrian" speed="2.78" length="11.26" width="2.00" shape="490.15,246.23 490.15,248.23 490.17,234.97 490.17,236.97"/>
    </edge>
    <edge id=":163_0" function="internal">
        <lane id=":163_0_0" index="0" allow="pedestrian" speed="5.15" length="5.17" width="3.50" shape="315.37,164.48 315.16,163.09 314.55,162.10 313.54,161.51 312.12,161.32"/>
        <lane id=":163_0_1" index="1" disallow="all" speed="6.05" length="4.23" width="0.63" shape="317.44,164.47 317.09,162.18 316.09,160.55"/>
        <lane id=":163_0_2" index="2" disallow="pedestrian tram rail_urban rail rail_electric rail_fast ship cable_car subway" speed="9.65" length="16.81" width="3.50" shape="323.65,164.45 322.90,158.19 320.73,153.73 317.12,151.07 316.08,150.88"/>
    </edge>
    <edge id=":163_3" function="internal">
        <lane id=":163_3_0" index="0" disallow="pedestrian tram rail_urban rail rail_electric rail_fast ship cable_car subway" speed="17.88" length="32.48" width="3.99" shape="323.65,164.45 323.57,131.97"/>
    </edge>
    <edge id=":163_4" function="internal">
        <lane id=":163_4_0" index="0" disallow="pedestrian tram rail_urban rail rail_electric rail_fast ship cable_car subway" speed="11.42" length="8.23" width="3.50" shape="327.39,164.44 328.23,156.25"/>
    </edge>
    <edge id=":163_20" function="internal">
        <lane id=":163_20_0" index="0" disallow="all" speed="6.05" length="4.27" width="0.63" shape="316.09,160.55 314.43,159.57 312.11,159.25"/>
        <lane id=":163_20_1" index="0" disallow="pedestrian tram rail_urban rail rail_electric rail_fast ship cable_car subway" speed="9.65" length="4.06" width="3.50" shape="316.08,150.88 312.08,150.19"/>
    </edge>
    <edge id=":163_21" function="internal">
        <lane id=":163_21_0" index="0" disallow="pedestrian tram rail_urban rail rail_electric rail_fast ship cable_car subway" speed="11.42" length="21.91" width="3.50" shape="328.23,156.25 328.35,155.05 331.29,148.36 336.23,144.37 343.15,143.07"/>
    </edge>
    <edge id=":163_5" function="internal">
        <lane id=":163_5_0" index="0" allow="pedestrian" speed="5.15" length="5.21" width="3.50" shape="343.04,161.20 341.61,161.39 340.59,161.99 339.98,162.99 339.78,164.39"/>
        <lane id=":163_5_1" index="1" disallow="all" speed="6.05" length="4.30" width="0.63" shape="343.05,159.14 340.71,159.45 339.04,160.43"/>
        <lane id=":163_5_2" index="2" disallow="pedestrian tram rail_urban rail rail_electric rail_fast ship cable_car subway" speed="9.72" length="17.47" width="3.50" shape="343.11,150.07 337.74,150.94 333.92,153.62 331.64,158.11 331.36,160.42"/>
    </edge>
    <edge id=":163_8" function="internal">
        <lane id=":163_8_0" index="0" disallow="pedestrian tram rail_urban rail rail_electric rail_fast ship cable_car subway" speed="17.88" length="31.03" width="3.50" shape="343.11,150.07 312.08,150.19"/>
    </edge>
    <edge id=":163_9" function="internal">
        <lane id=":163_9_0" index="0" disallow="pedestrian tram rail_urban rail rail_electric rail_fast ship cable_car subway" speed="10.98" length="7.47" width="3.99" shape="343.13,146.57 335.70,145.74"/>
    </edge>
    <edge id=":163_22" function="internal">
        <lane id=":163_22_0" index="0" disallow="all" speed="6.05" length="4.27" width="0.63" shape="339.04,160.43 338.04,162.08 337.71,164.40"/>
        <lane id=":163_22_1" index="0" disallow="pedestrian tram rail_urban rail rail_electric rail_fast ship cable_car subway" speed="9.72" length="4.03" width="3.50" shape="331.36,160.42 330.89,164.42"/>
    </edge>
    <edge id=":163_23" function="internal">
        <lane id=":163_23_0" index="0" disallow="pedestrian tram rail_urban rail rail_electric rail_fast ship cable_car subway" speed="10.98" length="20.20" width="3.99" shape="335.70,145.74 334.51,145.61 328.37,142.86 324.73,138.31 323.57,131.97"/>
    </edge>
    <edge id=":163_10" function="internal">
        <lane id=":163_10_0" index="0" allow="pedestrian" speed="5.27" length="5.48" width="3.50" shape="339.70,132.16 339.91,133.59 340.56,134.61 341.66,135.23 343.20,135.44"/>
        <lane id=":163_10_1" index="1" disallow="all" speed="6.15" length="4.56" width="0.63" shape="337.64,132.14 337.96,134.47 338.99,136.15 339.20,136.26"/>
        <lane id=":163_10_2" index="2" disallow="pedestrian tram rail_urban rail rail_electric rail_fast ship cable_car subway" speed="9.15" length="14.83" width="3.50" shape="330.81,132.06 331.54,136.84 333.83,140.28 337.71,142.35 339.16,142.54"/>
    </edge>
    <edge id=":163_13" function="internal">
        <lane id=":163_13_0" index="0" disallow="pedestrian tram rail_urban rail rail_electric rail_fast ship cable_car subway" speed="17.88" length="32.37" width="3.50" shape="330.81,132.06 330.89,164.42"/>
    </edge>
    <edge id=":163_14" function="internal">
        <lane id=":163_14_0" index="0" disallow="pedestrian tram rail_urban rail rail_electric rail_fast ship cable_car subway" speed="10.91" length="6.53" width="3.50" shape="327.31,132.01 326.47,138.49"/>
    </edge>
    <edge id=":163_24" function="internal">
        <lane id=":163_24_0" index="0" disallow="all" speed="6.15" length="4.26" width="0.63" shape="339.20,136.26 340.74,137.16 343.19,137.51"/>
        <lane id=":163_24_1" index="0" disallow="pedestrian tram rail_urban rail rail_electric rail_fast ship cable_car subway" speed="9.15" length="4.03" width="3.50" shape="339.16,142.54 343.15,143.07"/>
    </edge>
    <edge id=":163_25" function="internal">
        <lane id=":163_25_0" index="0" disallow="pedestrian tram rail_urban rail rail_electric rail_fast ship cable_car subway" speed="10.91" length="20.36" width="3.50" shape="326.47,138.49 326.28,139.95 323.40,145.62 318.66,149.03 312.08,150.19"/>
    </edge>
    <edge id=":163_15" function="internal">
        <lane id=":163_15_0" index="0" allow="pedestrian" speed="5.32" length="5.53" width="3.50" shape="312.02,135.56 313.40,135.33 314.39,134.63 314.99,133.48 315.20,131.87"/>
        <lane id=":163_15_1" index="1" disallow="all" speed="6.19" length="4.59" width="0.63" shape="312.03,137.63 314.30,137.26 315.93,136.18 316.09,135.88"/>
        <lane id=":163_15_2" index="2" disallow="pedestrian tram rail_urban rail rail_electric rail_fast ship cable_car subway" speed="9.08" length="14.23" width="3.99" shape="312.05,143.19 317.04,142.47 320.62,140.36 322.80,136.86 322.94,135.96"/>
    </edge>
    <edge id=":163_18" function="internal">
        <lane id=":163_18_0" index="0" disallow="pedestrian tram rail_urban rail rail_electric rail_fast ship cable_car subway" speed="17.88" length="31.10" width="3.50" shape="312.05,143.19 343.15,143.07"/>
    </edge>
    <edge id=":163_19" function="internal">
        <lane id=":163_19_0" index="0" disallow="pedestrian tram rail_urban rail rail_electric rail_fast ship cable_car subway" speed="11.34" length="6.38" width="3.50" shape="312.06,146.69 318.39,147.52"/>
    </edge>
    <edge id=":163_26" function="internal">
        <lane id=":163_26_0" index="0" disallow="all" speed="6.19" length="4.22" width="0.63" shape="316.09,135.88 316.92,134.40 317.27,131.90"/>
        <lane id=":163_26_1" index="0" disallow="pedestrian tram rail_urban rail rail_electric rail_fast ship cable_car subway" speed="9.08" length="4.04" width="3.99" shape="322.94,135.96 323.57,131.97"/>
    </edge>
    <edge id=":163_27" function="internal">
        <lane id=":163_27_0" index="0" disallow="pedestrian tram rail_urban rail rail_electric rail_fast ship cable_car subway" speed="11.34" length="23.11" width="3.50" shape="318.39,147.52 320.28,147.77 326.15,151.09 329.69,156.64 330.89,164.42"/>
    </edge>
    <edge id=":163_c0" function="crossing" crossingEdges="27#2 -27#2">
        <lane id=":163_c0_0" index="0" allow="pedestrian" speed="2.78" length="19.65" width="4.00" shape="337.39,162.40 317.74,162.47" outlineShape="337.40,164.40 317.75,164.47 317.59,162.77 317.11,161.39 316.45,160.47 338.66,160.40 338.02,161.29 337.55,162.69"/>
    </edge>
    <edge id=":163_c1" function="crossing" crossingEdges="1#3 -1#3">
        <lane id=":163_c1_0" index="0" allow="pedestrian" speed="2.78" length="14.00" width="4.00" shape="341.19,137.81 341.10,151.81" outlineShape="343.19,137.82 343.10,151.82 343.10,151.92 343.10,151.82 342.40,154.62 339.10,151.80 339.19,137.80 339.19,136.68 339.90,137.17 341.38,137.65"/>
    </edge>
    <edge id=":163_c2" function="crossing" crossingEdges="-31#0 31#0">
        <lane id=":163_c2_0" index="0" allow="pedestrian" speed="2.78" length="19.74" width="4.00" shape="317.56,133.90 337.30,134.13" outlineShape="317.58,131.90 337.32,132.13 337.47,133.86 337.94,135.28 338.58,136.15 316.51,135.89 316.94,135.25 317.41,133.74"/>
    </edge>
    <edge id=":163_c3" function="crossing" crossingEdges="-5 5">
        <lane id=":163_c3_0" index="0" allow="pedestrian" speed="2.78" length="17.50" width="4.00" shape="314.11,158.93 314.04,141.43" outlineShape="312.11,158.94 312.04,141.44 312.04,141.34 312.04,141.44 313.71,137.77 315.08,137.26 316.04,141.43 316.11,158.93 316.11,160.16 315.23,159.55 313.83,159.09"/>
    </edge>
    <edge id=":163_w0" function="walkingarea">
        <lane id=":163_w0_0" index="0" allow="pedestrian" speed="2.78" length="4.54" width="4.00" shape="312.11,158.94 312.11,159.57 312.12,163.07 313.62,164.48 317.12,164.47 317.75,164.47 317.59,162.77 317.11,161.39 316.33,160.31 315.23,159.55 313.83,159.09"/>
    </edge>
    <edge id=":163_w1" function="walkingarea">
        <lane id=":163_w1_0" index="0" allow="pedestrian" speed="2.78" length="7.82" width="4.00" shape="337.40,164.40 338.03,164.40 341.53,164.39 343.03,162.95 343.05,159.45 343.10,151.82 341.32,158.97 339.90,159.42 338.80,160.20 338.02,161.29 337.55,162.69"/>
    </edge>
    <edge id=":163_w2" function="walkingarea">
        <lane id=":163_w2_0" index="0" allow="pedestrian" speed="2.78" length="4.71" width="4.00" shape="343.19,137.82 343.19,137.19 343.21,133.69 341.45,132.18 337.95,132.14 337.32,132.13 337.47,133.86 337.94,135.28 338.76,136.38 339.90,137.17 341.38,137.65"/>
    </edge>
    <edge id=":163_w3" function="walkingarea">
        <lane id=":163_w3_0" index="0" allow="pedestrian" speed="2.78" length="6.32" width="4.00" shape="317.58,131.90 316.95,131.89 313.45,131.85 312.02,133.81 312.03,137.31 312.04,141.44 313.71,137.77 315.08,137.26 316.16,136.42 316.94,135.25 317.41,133.74"/>
    </edge>
    <edge id=":17.begin_0" function="internal">
        <lane id=":17.begin_0_0" index="0" disallow="pedestrian tram rail_urban rail rail_electric rail_fast ship cable_car subway" speed="3.82" length="5.11" width="3.50" shape="0.00,32.41 -1.31,31.53 -1.75,30.66 -1.31,29.78 0.00,28.91"/>
    </edge>
    <edge id=":17.begin_w0" function="walkingarea">
        <lane id=":17.begin_w0_0" index="0" allow="pedestrian" speed="2.78" length="11.26" width="2.00" shape="0.00,26.03 0.00,24.03 0.00,37.29 0.00,35.29"/>
    </edge>
    <edge id=":20.end_0" function="internal">
        <lane id=":20.end_0_0" index="0" disallow="pedestrian tram rail_urban rail rail_electric rail_fast ship cable_car subway" speed="3.82" length="5.11" width="3.50" shape="510.89,28.91 512.20,29.79 512.64,30.66 512.20,31.54 510.89,32.41"/>
    </edge>
    <edge id=":20.end_w0" function="walkingarea">
        <lane id=":20.end_w0_0" index="0" allow="pedestrian" speed="2.78" length="11.26" width="2.00" shape="510.89,35.29 510.89,37.29 510.89,24.03 510.89,26.03"/>
    </edge>
    <edge id=":21.begin_0" function="internal">
        <lane id=":21.begin_0_0" index="0" disallow="pedestrian tram rail_urban rail rail_electric rail_fast ship cable_car subway" speed="3.82" length="5.11" width="3.50" shape="463.45,271.98 462.41,273.17 461.49,273.48 460.68,272.94 459.99,271.52"/>
    </edge>
    <edge id=":21.begin_w0" function="walkingarea">
        <lane id=":21.begin_w0_0" index="0" allow="pedestrian" speed="2.78" length="11.26" width="2.00" shape="457.13,271.14 455.15,270.88 468.29,272.62 466.31,272.36"/>
    </edge>
    <edge id=":25.end_0" function="internal">
        <lane id=":25.end_0_0" index="0" disallow="pedestrian tram rail_urban rail rail_electric rail_fast ship cable_car subway" speed="3.82" length="5.11" width="3.50" shape="496.05,-0.23 497.09,-1.42 498.01,-1.73 498.82,-1.19 499.51,0.23"/>
    </edge>
    <edge id=":25.end_w0" function="walkingarea">
        <lane id=":25.end_w0_0" index="0" allow="pedestrian" speed="2.78" length="11.26" width="2.00" shape="502.37,0.61 504.35,0.87 491.21,-0.87 493.19,-0.61"/>
    </edge>
    <edge id=":258_0" function="internal">
        <lane id=":258_0_0" index="0" allow="pedestrian" speed="6.66" length="8.91" width="2.00" shape="503.98,36.29 501.60,36.62 499.80,37.61 498.58,39.27 497.94,41.58">
            <param key="origId" value="273_2"/>
        </lane>
        <lane id=":258_0_1" index="1" disallow="all" speed="7.18" length="10.84" width="0.63" shape="503.98,34.98 501.09,35.38 498.90,36.58 497.42,38.59 496.64,41.41">
            <param key="origId" value="273_1"/>
        </lane>
    </edge>
    <edge id=":258_2" function="internal">
        <lane id=":258_2_0" index="0" disallow="all" speed="17.88" length="20.54" width="0.50" shape="503.98,34.41 483.44,34.41">
            <param key="origId" value="300_2"/>
        </lane>
    </edge>
    <edge id=":258_3" function="internal">
        <lane id=":258_3_0" index="0" disallow="pedestrian tram rail_urban rail rail_electric rail_fast ship cable_car subway" speed="8.54" length="4.47" width="3.50" shape="503.98,32.41 500.09,32.95 499.62,33.21">
            <param key="origId" value="276_1"/>
        </lane>
    </edge>
    <edge id=":258_4" function="internal">
        <lane id=":258_4_0" index="0" disallow="pedestrian tram rail_urban rail rail_electric rail_fast ship cable_car subway" speed="17.88" length="20.54" width="3.50" shape="503.98,32.41 483.44,32.41">
            <param key="origId" value="300_1"/>
        </lane>
    </edge>
    <edge id=":258_5" function="internal">
        <lane id=":258_5_0" index="0" disallow="pedestrian tram rail_urban rail rail_electric rail_fast ship cable_car subway" speed="8.80" length="5.32" width="3.50" shape="503.98,32.41 498.71,31.65">
            <param key="origId" value="304_1"/>
        </lane>
    </edge>
    <edge id=":258_24" function="internal">
        <lane id=":258_24_0" index="0" disallow="pedestrian tram rail_urban rail rail_electric rail_fast ship cable_car subway" speed="8.54" length="10.12" width="3.50" shape="499.62,33.21 497.14,34.58 495.14,37.28 494.09,41.07">
            <param key="origId" value="276_1"/>
        </lane>
    </edge>
    <edge id=":258_25" function="internal">
        <lane id=":258_25_0" index="0" disallow="pedestrian tram rail_urban rail rail_electric rail_fast ship cable_car subway" speed="8.80" length="13.73" width="3.50" shape="498.71,31.65 495.18,29.37 493.39,25.57 493.33,20.25">
            <param key="origId" value="304_1"/>
        </lane>
    </edge>
    <edge id=":258_6" function="internal">
        <lane id=":258_6_0" index="0" allow="pedestrian" speed="5.05" length="5.97" width="2.00" shape="500.64,21.22 500.66,22.89 501.22,24.08 502.33,24.79 503.98,25.03">
            <param key="origId" value="303_-2"/>
        </lane>
        <lane id=":258_6_1" index="1" disallow="all" speed="5.70" length="8.30" width="0.63" shape="499.34,21.05 499.36,23.37 500.15,25.02 501.69,26.01 503.98,26.34">
            <param key="origId" value="303_-1"/>
        </lane>
    </edge>
    <edge id=":258_8" function="internal">
        <lane id=":258_8_0" index="0" disallow="all" speed="17.88" length="20.54" width="0.50" shape="498.78,20.97 496.08,41.33">
            <param key="origId" value="271_2"/>
        </lane>
    </edge>
    <edge id=":258_9" function="internal">