<?xml version="1.0" encoding="UTF-8"?>

<!-- generated on 2025-04-11 00:29:24 by Eclipse SUMO netedit Version 1.22.0
<neteditConfiguration xmlns:xsi="http://www.w3.org/2001/XMLSchema-instance" xsi:noNamespaceSchemaLocation="http://sumo.dlr.de/xsd/neteditConfiguration.xsd">

    <input>
        <sumocfg-file value="/home/carla/digital_twins/carla/Co-Simulation/Sumo/demand1.sumocfg"/>
        <route-files value="/home/carla/digital_twins/carla/Co-Simulation/Sumo/demand1.rou.xml"/>
        <sumo-net-file value="/home/carla/digital_twins/carla/Co-Simulation/Sumo/util/net.net.xml"/>
    </input>

    <output>
        <output-file value="/home/carla/digital_twins/carla/Co-Simulation/Sumo/util/net.net.xml"/>
    </output>

    <processing>
        <geometry.min-radius.fix.railways value="false"/>
        <geometry.max-grade.fix value="false"/>
        <offset.disable-normalization value="true"/>
        <lefthand value="0"/>
    </processing>

    <junctions>
        <no-turnarounds value="true"/>
        <junctions.corner-detail value="5"/>
        <junctions.limit-turn-speed value="5.50"/>
        <rectangular-lane-cut value="1"/>
    </junctions>

    <pedestrian>
        <walkingareas value="0"/>
    </pedestrian>

</neteditConfiguration>
-->

<net version="1.20" junctionCornerDetail="5" rectangularLaneCut="true" limitTurnSpeed="5.50" xmlns:xsi="http://www.w3.org/2001/XMLSchema-instance" xsi:noNamespaceSchemaLocation="http://sumo.dlr.de/xsd/net_file.xsd">

    <location netOffset="331.16,-170.28" convBoundary="0.00,0.00,517.58,280.47" origBoundary="0.000000,0.000000,0.000000,0.000000" projParameter="+proj=tmerc +lat_0=40.80825732259184 +lon_0=-73.95665195105859 +k=1 +x_0=0 +y_0=0 +datum=WGS84 +units=m +geoidgrids=egm96_15.gtx +vunits=m +no_defs "/>


    <edge id=":0.begin_0" function="internal">
        <lane id=":0.begin_0_0" index="0" disallow="pedestrian tram rail_urban rail rail_electric rail_fast ship cable_car subway" speed="3.82" length="5.11" width="3.50" shape="513.65,145.95 514.89,146.93 515.25,147.83 514.75,148.67 513.37,149.43"/>
    </edge>
    <edge id=":10.end_0" function="internal">
        <lane id=":10.end_0_0" index="0" disallow="pedestrian tram rail_urban rail rail_electric rail_fast ship cable_car subway" speed="3.82" length="5.11" width="3.50" shape="52.24,9.76 53.12,8.45 54.00,8.02 54.87,8.46 55.74,9.78"/>
    </edge>
    <edge id=":11.begin_0" function="internal">
        <lane id=":11.begin_0_0" index="0" disallow="pedestrian tram rail_urban rail rail_electric rail_fast ship cable_car subway" speed="3.82" length="5.11" width="3.50" shape="517.58,71.93 518.89,72.80 519.33,73.68 518.89,74.55 517.58,75.43"/>
    </edge>
    <edge id=":112_0" function="internal">
        <lane id=":112_0_0" index="0" allow="pedestrian" speed="6.64" length="8.85" width="2.00" shape="475.97,247.20 473.60,247.52 471.81,248.50 470.60,250.14 469.96,252.44">
            <param key="origId" value="146_-2"/>
        </lane>
        <lane id=":112_0_1" index="1" disallow="all" speed="7.15" length="10.78" width="0.63" shape="475.97,245.88 473.09,246.28 470.91,247.47 469.43,249.47 468.66,252.27">
            <param key="origId" value="146_-1"/>
        </lane>
    </edge>
    <edge id=":112_2" function="internal">
        <lane id=":112_2_0" index="0" disallow="all" speed="17.88" length="20.50" width="0.50" shape="475.97,245.32 455.47,245.27">
            <param key="origId" value="155_2"/>
        </lane>
    </edge>
    <edge id=":112_3" function="internal">
        <lane id=":112_3_0" index="0" disallow="pedestrian tram rail_urban rail rail_electric rail_fast ship cable_car subway" speed="8.52" length="4.46" width="3.50" shape="475.98,243.32 472.09,243.85 471.62,244.11">
            <param key="origId" value="138_1"/>
        </lane>
    </edge>
    <edge id=":112_4" function="internal">
        <lane id=":112_4_0" index="0" disallow="pedestrian tram rail_urban rail rail_electric rail_fast ship cable_car subway" speed="17.88" length="20.50" width="3.50" shape="475.98,243.32 455.48,243.27">
            <param key="origId" value="155_1"/>
        </lane>
    </edge>
    <edge id=":112_5" function="internal">
        <lane id=":112_5_0" index="0" disallow="pedestrian tram rail_urban rail rail_electric rail_fast ship cable_car subway" speed="8.82" length="5.27" width="3.50" shape="475.98,243.32 470.76,242.55">
            <param key="origId" value="115_1"/>
        </lane>
    </edge>
    <edge id=":112_24" function="internal">
        <lane id=":112_24_0" index="0" disallow="pedestrian tram rail_urban rail rail_electric rail_fast ship cable_car subway" speed="8.52" length="10.08" width="3.50" shape="471.62,244.11 469.15,245.46 467.16,248.16 466.11,251.93">
            <param key="origId" value="138_1"/>
        </lane>
    </edge>
    <edge id=":112_25" function="internal">
        <lane id=":112_25_0" index="0" disallow="pedestrian tram rail_urban rail rail_electric rail_fast ship cable_car subway" speed="8.82" length="13.70" width="3.50" shape="470.76,242.55 467.25,240.27 465.44,236.47 465.34,231.16">
            <param key="origId" value="115_1"/>
        </lane>
    </edge>
    <edge id=":112_6" function="internal">
        <lane id=":112_6_0" index="0" allow="pedestrian" speed="5.08" length="5.99" width="2.00" shape="472.67,232.07 472.70,233.76 473.26,234.97 474.36,235.70 475.99,235.94">
            <param key="origId" value="114_-2"/>
        </lane>
        <lane id=":112_6_1" index="1" disallow="all" speed="5.73" length="8.30" width="0.63" shape="471.36,231.91 471.40,234.24 472.19,235.91 473.72,236.92 475.99,237.26">
            <param key="origId" value="114_-1"/>
        </lane>
    </edge>
    <edge id=":112_8" function="internal">
        <lane id=":112_8_0" index="0" disallow="all" speed="17.88" length="20.53" width="0.50" shape="470.80,231.84 468.10,252.19">
            <param key="origId" value="126_2"/>
        </lane>
    </edge>
    <edge id=":112_9" function="internal">
        <lane id=":112_9_0" index="0" disallow="pedestrian tram rail_urban rail rail_electric rail_fast ship cable_car subway" speed="7.36" length="12.82" width="3.50" shape="468.82,231.60 468.88,235.19 470.10,237.76 472.47,239.30 475.98,239.82">
            <param key="origId" value="113_1"/>
        </lane>
    </edge>
    <edge id=":112_10" function="internal">
        <lane id=":112_10_0" index="0" disallow="pedestrian tram rail_urban rail rail_electric rail_fast ship cable_car subway" speed="17.88" length="20.51" width="3.50" shape="468.82,231.60 466.11,251.93">
            <param key="origId" value="126_1"/>
        </lane>
    </edge>
    <edge id=":112_11" function="internal">
        <lane id=":112_11_0" index="0" disallow="pedestrian tram rail_urban rail rail_electric rail_fast ship cable_car subway" speed="9.80" length="19.72" width="3.50" shape="468.82,231.60 467.44,236.71 464.76,240.36 460.77,242.55 455.48,243.27">
            <param key="origId" value="130_1"/>
        </lane>
    </edge>
    <edge id=":112_12" function="internal">
        <lane id=":112_12_0" index="0" allow="pedestrian" speed="6.61" length="8.83" width="2.00" shape="455.49,235.89 457.88,235.57 459.67,234.60 460.88,232.97 461.49,230.69">
            <param key="origId" value="135_2"/>
        </lane>
        <lane id=":112_12_1" index="1" disallow="all" speed="7.12" length="10.77" width="0.63" shape="455.49,237.21 458.39,236.81 460.58,235.62 462.05,233.64 462.80,230.85">
            <param key="origId" value="135_1"/>
        </lane>
    </edge>
    <edge id=":112_14" function="internal">
        <lane id=":112_14_0" index="0" disallow="all" speed="17.88" length="20.50" width="0.50" shape="455.49,237.77 475.99,237.82">
            <param key="origId" value="154_-2"/>
        </lane>
    </edge>
    <edge id=":112_15" function="internal">
        <lane id=":112_15_0" index="0" disallow="pedestrian tram rail_urban rail rail_electric rail_fast ship cable_car subway" speed="8.50" length="4.49" width="3.50" shape="455.48,239.77 459.40,239.24 459.87,238.98">
            <param key="origId" value="127_-1"/>
        </lane>
    </edge>
    <edge id=":112_16" function="internal">
        <lane id=":112_16_0" index="0" disallow="pedestrian tram rail_urban rail rail_electric rail_fast ship cable_car subway" speed="17.88" length="20.50" width="3.50" shape="455.48,239.77 475.98,239.82">
            <param key="origId" value="154_-1"/>
        </lane>
    </edge>
    <edge id=":112_17" function="internal">
        <lane id=":112_17_0" index="0" disallow="pedestrian tram rail_urban rail rail_electric rail_fast ship cable_car subway" speed="8.80" length="5.31" width="3.50" shape="455.48,239.77 460.74,240.54">
            <param key="origId" value="157_-1"/>
        </lane>
    </edge>
    <edge id=":112_26" function="internal">
        <lane id=":112_26_0" index="0" disallow="pedestrian tram rail_urban rail rail_electric rail_fast ship cable_car subway" speed="8.50" length="10.07" width="3.50" shape="459.87,238.98 462.34,237.63 464.33,234.94 465.34,231.16">
            <param key="origId" value="127_-1"/>
        </lane>
    </edge>
    <edge id=":112_27" function="internal">
        <lane id=":112_27_0" index="0" disallow="pedestrian tram rail_urban rail rail_electric rail_fast ship cable_car subway" speed="8.80" length="13.71" width="3.50" shape="460.74,240.54 464.26,242.82 466.05,246.62 466.11,251.93">
            <param key="origId" value="157_-1"/>
        </lane>
    </edge>
    <edge id=":112_18" function="internal">
        <lane id=":112_18_0" index="0" allow="pedestrian" speed="5.05" length="5.96" width="2.00" shape="458.80,250.96 458.78,249.30 458.22,248.11 457.11,247.39 455.47,247.15">
            <param key="origId" value="156_-2"/>
        </lane>
        <lane id=":112_18_1" index="1" disallow="all" speed="5.70" length="8.29" width="0.63" shape="460.10,251.13 460.08,248.82 459.29,247.17 457.76,246.17 455.47,245.83">
            <param key="origId" value="156_-1"/>
        </lane>
    </edge>
    <edge id=":112_20" function="internal">
        <lane id=":112_20_0" index="0" disallow="all" speed="17.88" length="20.47" width="0.50" shape="460.66,251.21 463.36,230.92">
            <param key="origId" value="125_-2"/>
        </lane>
    </edge>
    <edge id=":112_21" function="internal">
        <lane id=":112_21_0" index="0" disallow="pedestrian tram rail_urban rail rail_electric rail_fast ship cable_car subway" speed="7.34" length="12.82" width="3.50" shape="462.65,251.47 462.60,247.89 461.40,245.33 459.02,243.79 455.48,243.27">
            <param key="origId" value="162_-1"/>
        </lane>
    </edge>
    <edge id=":112_22" function="internal">
        <lane id=":112_22_0" index="0" disallow="pedestrian tram rail_urban rail rail_electric rail_fast ship cable_car subway" speed="17.88" length="20.48" width="3.50" shape="462.65,251.47 465.34,231.16">
            <param key="origId" value="125_-1"/>
        </lane>
    </edge>
    <edge id=":112_23" function="internal">
        <lane id=":112_23_0" index="0" disallow="pedestrian tram rail_urban rail rail_electric rail_fast ship cable_car subway" speed="9.83" length="19.67" width="3.50" shape="462.65,251.47 464.06,246.36 466.75,242.72 470.73,240.54 475.98,239.82">
            <param key="origId" value="141_-1"/>
        </lane>
    </edge>
    <edge id=":13.begin_0" function="internal">
        <lane id=":13.begin_0_0" index="0" disallow="pedestrian tram rail_urban rail rail_electric rail_fast ship cable_car subway" speed="3.82" length="5.11" width="3.50" shape="9.91,242.25 8.60,241.37 8.16,240.50 8.60,239.62 9.91,238.75"/>
    </edge>
    <edge id=":16.end_0" function="internal">
        <lane id=":16.end_0_0" index="0" disallow="pedestrian tram rail_urban rail rail_electric rail_fast ship cable_car subway" speed="3.82" length="5.11" width="3.50" shape="490.16,239.85 491.47,240.73 491.91,241.60 491.47,242.48 490.16,243.35"/>
    </edge>
    <edge id=":163_0" function="internal">
        <lane id=":163_0_0" index="0" allow="pedestrian" speed="6.22" length="7.14" width="3.5" shape="313.97,166.34 313.67,164.53 312.78,163.24 311.30,162.47 309.24,162.22"/>
        <lane id=":163_0_1" index="1" disallow="all" speed="7.26" length="12.33" width="0.63" shape="317.44,166.32 316.92,163.22 315.38,161.02 312.81,159.70 309.23,159.27"/>
        <lane id=":163_0_2" index="2" disallow="pedestrian tram rail_urban rail rail_electric rail_fast ship cable_car subway" speed="10.44" length="24.65" width="3.50" shape="323.65,166.30 322.73,159.24 320.01,154.20 315.50,151.19 309.20,150.20"/>
    </edge>
    <edge id=":163_3" function="internal">
        <lane id=":163_3_0" index="0" disallow="pedestrian tram rail_urban rail rail_electric rail_fast ship cable_car subway" speed="17.88" length="35.91" width="3.99" shape="323.65,166.30 323.59,130.39"/>
    </edge>
    <edge id=":163_4" function="internal">
        <lane id=":163_4_0" index="0" disallow="pedestrian tram rail_urban rail rail_electric rail_fast ship cable_car subway" speed="12.14" length="7.46" width="3.50" shape="327.40,166.29 328.24,158.88"/>
    </edge>
    <edge id=":163_20" function="internal">
        <lane id=":163_20_0" index="0" disallow="pedestrian tram rail_urban rail rail_electric rail_fast ship cable_car subway" speed="12.14" length="26.73" width="3.50" shape="328.24,158.88 328.56,156.10 332.11,148.83 338.07,144.50 346.42,143.09"/>
    </edge>
    <edge id=":163_5" function="internal">
        <lane id=":163_5_0" index="0" allow="pedestrian" speed="6.14" length="7.30" width="3.5" shape="346.30,162.11 344.15,162.35 342.63,163.13 341.71,164.42 341.41,166.24"/>
        <lane id=":163_5_1" index="1" disallow="all" speed="7.34" length="12.71" width="0.63" shape="346.32,159.16 342.55,159.58 339.86,160.90 338.25,163.13 337.72,166.26"/>
        <lane id=":163_5_2" index="2" disallow="pedestrian tram rail_urban rail rail_electric rail_fast ship cable_car subway" speed="10.56" length="25.59" width="3.50" shape="346.38,150.09 339.58,151.07 334.74,154.09 331.84,159.16 330.90,166.28"/>
    </edge>
    <edge id=":163_8" function="internal">
        <lane id=":163_8_0" index="0" disallow="pedestrian tram rail_urban rail rail_electric rail_fast ship cable_car subway" speed="17.88" length="37.18" width="3.50" shape="346.38,150.09 309.20,150.20"/>
    </edge>
    <edge id=":163_9" function="internal">
        <lane id=":163_9_0" index="0" disallow="pedestrian tram rail_urban rail rail_electric rail_fast ship cable_car subway" speed="11.71" length="7.88" width="3.99" shape="346.40,146.59 338.57,145.76"/>
    </edge>
    <edge id=":163_21" function="internal">
        <lane id=":163_21_0" index="0" disallow="pedestrian tram rail_urban rail rail_electric rail_fast ship cable_car subway" speed="11.71" length="23.77" width="3.99" shape="338.57,145.76 336.35,145.52 329.20,142.47 324.94,137.42 323.59,130.39"/>
    </edge>
    <edge id=":163_10" function="internal">
        <lane id=":163_10_0" index="0" allow="pedestrian" speed="6.36" length="7.45" width="3.5" shape="341.35,130.60 341.65,132.37 342.60,133.65 344.21,134.42 346.48,134.68"/>
        <lane id=":163_10_1" index="1" disallow="all" speed="7.37" length="12.76" width="0.63" shape="337.66,130.56 338.18,133.59 339.82,135.76 342.58,137.07 346.46,137.53"/>
        <lane id=":163_10_2" index="2" disallow="pedestrian tram rail_urban rail rail_electric rail_fast ship cable_car subway" speed="10.01" length="22.81" width="3.50" shape="330.83,130.48 331.75,135.96 334.66,139.89 339.55,142.27 346.42,143.09"/>
    </edge>
    <edge id=":163_13" function="internal">
        <lane id=":163_13_0" index="0" disallow="pedestrian tram rail_urban rail rail_electric rail_fast ship cable_car subway" speed="17.88" length="35.80" width="3.50" shape="330.83,130.48 330.90,166.28"/>
    </edge>
    <edge id=":163_14" function="internal">
        <lane id=":163_14_0" index="0" disallow="pedestrian tram rail_urban rail rail_electric rail_fast ship cable_car subway" speed="11.59" length="6.05" width="3.50" shape="327.33,130.44 326.48,136.43"/>
    </edge>
    <edge id=":163_22" function="internal">
        <lane id=":163_22_0" index="0" disallow="pedestrian tram rail_urban rail rail_electric rail_fast ship cable_car subway" speed="11.59" length="24.41" width="3.50" shape="326.48,136.43 326.11,139.06 322.68,145.23 317.04,148.94 309.20,150.20"/>
    </edge>
    <edge id=":163_15" function="internal">
        <lane id=":163_15_0" index="0" allow="pedestrian" speed="6.19" length="7.38" width="3.5" shape="309.14,134.79 311.16,134.50 312.62,133.65 313.50,132.25 313.81,130.28"/>
        <lane id=":163_15_1" index="1" disallow="all" speed="7.33" length="12.43" width="0.63" shape="309.15,137.64 312.68,137.17 315.21,135.79 316.75,133.51 317.29,130.32"/>
        <lane id=":163_15_2" index="2" disallow="pedestrian tram rail_urban rail rail_electric rail_fast ship cable_car subway" speed="9.89" length="21.90" width="3.99" shape="309.17,143.20 315.42,142.38 319.91,139.97 322.63,135.98 323.59,130.39"/>
    </edge>
    <edge id=":163_18" function="internal">
        <lane id=":163_18_0" index="0" disallow="pedestrian tram rail_urban rail rail_electric rail_fast ship cable_car subway" speed="17.88" length="37.25" width="3.50" shape="309.17,143.20 346.42,143.09"/>
    </edge>
    <edge id=":163_19" function="internal">
        <lane id=":163_19_0" index="0" disallow="pedestrian tram rail_urban rail rail_electric rail_fast ship cable_car subway" speed="12.03" length="6.70" width="3.50" shape="309.18,146.70 315.83,147.54"/>
    </edge>
    <edge id=":163_23" function="internal">
        <lane id=":163_23_0" index="0" disallow="pedestrian tram rail_urban rail rail_electric rail_fast ship cable_car subway" speed="12.03" length="26.62" width="3.50" shape="315.83,147.54 318.66,147.89 325.43,151.56 329.51,157.68 330.90,166.28"/>
    </edge>
    <edge id=":17.begin_0" function="internal">
        <lane id=":17.begin_0_0" index="0" disallow="pedestrian tram rail_urban rail rail_electric rail_fast ship cable_car subway" speed="3.82" length="5.11" width="3.50" shape="0.00,32.41 -1.31,31.53 -1.75,30.66 -1.31,29.78 0.00,28.91"/>
    </edge>
    <edge id=":20.end_0" function="internal">
        <lane id=":20.end_0_0" index="0" disallow="pedestrian tram rail_urban rail rail_electric rail_fast ship cable_car subway" speed="3.82" length="5.11" width="3.50" shape="510.89,28.91 512.20,29.79 512.64,30.66 512.20,31.54 510.89,32.41"/>
    </edge>
    <edge id=":21.begin_0" function="internal">
        <lane id=":21.begin_0_0" index="0" disallow="pedestrian tram rail_urban rail rail_electric rail_fast ship cable_car subway" speed="3.82" length="5.11" width="3.50" shape="463.45,271.98 462.41,273.17 461.49,273.48 460.68,272.94 459.99,271.52"/>
    </edge>
    <edge id=":25.end_0" function="internal">
        <lane id=":25.end_0_0" index="0" disallow="pedestrian tram rail_urban rail rail_electric rail_fast ship cable_car subway" speed="3.82" length="5.11" width="3.50" shape="496.05,-0.23 497.09,-1.42 498.01,-1.73 498.82,-1.19 499.51,0.23"/>
    </edge>
    <edge id=":258_0" function="internal">
        <lane id=":258_0_0" index="0" allow="pedestrian" speed="6.66" length="8.91" width="2.00" shape="503.98,36.29 501.60,36.62 499.80,37.61 498.58,39.27 497.94,41.58">
            <param key="origId" value="273_2"/>
        </lane>
        <lane id=":258_0_1" index="1" disallow="all" speed="7.18" length="10.84" width="0.63" shape="503.98,34.98 501.09,35.38 498.90,36.58 497.42,38.59 496.64,41.41">
            <param key="origId" value="273_1"/>
        </lane>
    </edge>
    <edge id=":258_2" function="internal">
        <lane id=":258_2_0" index="0" disallow="all" speed="17.88" length="20.54" width="0.50" shape="503.98,34.41 483.44,34.41">
            <param key="origId" value="300_2"/>
        </lane>
    </edge>
    <edge id=":258_3" function="internal">
        <lane id=":258_3_0" index="0" disallow="pedestrian tram rail_urban rail rail_electric rail_fast ship cable_car subway" speed="8.54" length="4.47" width="3.50" shape="503.98,32.41 500.09,32.95 499.62,33.21">
            <param key="origId" value="276_1"/>
        </lane>
    </edge>
    <edge id=":258_4" function="internal">
        <lane id=":258_4_0" index="0" disallow="pedestrian tram rail_urban rail rail_electric rail_fast ship cable_car subway" speed="17.88" length="20.54" width="3.50" shape="503.98,32.41 483.44,32.41">
            <param key="origId" value="300_1"/>
        </lane>
    </edge>
    <edge id=":258_5" function="internal">
        <lane id=":258_5_0" index="0" disallow="pedestrian tram rail_urban rail rail_electric rail_fast ship cable_car subway" speed="8.80" length="5.32" width="3.50" shape="503.98,32.41 498.71,31.65">
            <param key="origId" value="304_1"/>
        </lane>
    </edge>
    <edge id=":258_24" function="internal">
        <lane id=":258_24_0" index="0" disallow="pedestrian tram rail_urban rail rail_electric rail_fast ship cable_car subway" speed="8.54" length="10.12" width="3.50" shape="499.62,33.21 497.14,34.58 495.14,37.28 494.09,41.07">
            <param key="origId" value="276_1"/>
        </lane>
    </edge>
    <edge id=":258_25" function="internal">
        <lane id=":258_25_0" index="0" disallow="pedestrian tram rail_urban rail rail_electric rail_fast ship cable_car subway" speed="8.80" length="13.73" width="3.50" shape="498.71,31.65 495.18,29.37 493.39,25.57 493.33,20.25">
            <param key="origId" value="304_1"/>
        </lane>
    </edge>
    <edge id=":258_6" function="internal">
        <lane id=":258_6_0" index="0" allow="pedestrian" speed="5.05" length="5.97" width="2.00" shape="500.64,21.22 500.66,22.89 501.22,24.08 502.33,24.79 503.98,25.03">
            <param key="origId" value="303_-2"/>
        </lane>
        <lane id=":258_6_1" index="1" disallow="all" speed="5.70" length="8.30" width="0.63" shape="499.34,21.05 499.36,23.37 500.15,25.02 501.69,26.01 503.98,26.34">
            <param key="origId" value="303_-1"/>
        </lane>
    </edge>
    <edge id=":258_8" function="internal">
        <lane id=":258_8_0" index="0" disallow="all" speed="17.88" length="20.54" width="0.50" shape="498.78,20.97 496.08,41.33">
            <param key="origId" value="271_2"/>
        </lane>
    </edge>
    <edge id=":258_9" function="internal">
        <lane id=":258_9_0" index="0" disallow="pedestrian tram rail_urban rail rail_electric rail_fast ship cable_car subway" speed="7.34" length="12.85" width="3.50" shape="496.79,20.71 496.84,24.30 498.05,26.86 500.43,28.40 503.98,28.91">
            <param key="origId" value="302_1"/>
        </lane>
    </edge>
    <edge id=":258_10" function="internal">
        <lane id=":258_10_0" index="0" disallow="pedestrian tram rail_urban rail rail_electric rail_fast ship cable_car subway" speed="17.88" length="20.54" width="3.50" shape="496.79,20.71 494.09,41.07">
            <param key="origId" value="271_1"/>
        </lane>
    </edge>
    <edge id=":258_11" function="internal">
        <lane id=":258_11_0" index="0" disallow="pedestrian tram rail_urban rail rail_electric rail_fast ship cable_car subway" speed="9.84" length="19.71" width="3.50" shape="496.79,20.71 495.38,25.83 492.68,29.49 488.70,31.68 483.44,32.41">
            <param key="origId" value="287_1"/>
        </lane>
    </edge>
    <edge id=":258_12" function="internal">
        <lane id=":258_12_0" index="0" allow="pedestrian" speed="6.66" length="8.91" width="2.00" shape="483.44,25.03 485.82,24.70 487.62,23.71 488.84,22.05 489.48,19.74">
            <param key="origId" value="284_-2"/>
        </lane>
        <lane id=":258_12_1" index="1" disallow="all" speed="7.18" length="10.84" width="0.63" shape="483.44,26.34 486.33,25.94 488.52,24.74 490.00,22.73 490.78,19.91">
            <param key="origId" value="284_-1"/>
        </lane>
    </edge>
    <edge id=":258_14" function="internal">
        <lane id=":258_14_0" index="0" disallow="all" speed="17.88" length="20.54" width="0.50" shape="483.44,26.91 503.98,26.91">
            <param key="origId" value="301_-2"/>
        </lane>
    </edge>
    <edge id=":258_15" function="internal">
        <lane id=":258_15_0" index="0" disallow="pedestrian tram rail_urban rail rail_electric rail_fast ship cable_car subway" speed="8.54" length="4.47" width="3.50" shape="483.44,28.91 487.33,28.37 487.80,28.11">
            <param key="origId" value="292_-1"/>
        </lane>
    </edge>
    <edge id=":258_16" function="internal">
        <lane id=":258_16_0" index="0" disallow="pedestrian tram rail_urban rail rail_electric rail_fast ship cable_car subway" speed="17.88" length="20.54" width="3.50" shape="483.44,28.91 503.98,28.91">
            <param key="origId" value="301_-1"/>
        </lane>
    </edge>
    <edge id=":258_17" function="internal">
        <lane id=":258_17_0" index="0" disallow="pedestrian tram rail_urban rail rail_electric rail_fast ship cable_car subway" speed="8.80" length="5.32" width="3.50" shape="483.44,28.91 488.71,29.67">
            <param key="origId" value="261_-1"/>
        </lane>
    </edge>
    <edge id=":258_26" function="internal">
        <lane id=":258_26_0" index="0" disallow="pedestrian tram rail_urban rail rail_electric rail_fast ship cable_car subway" speed="8.54" length="10.12" width="3.50" shape="487.80,28.11 490.28,26.74 492.28,24.04 493.33,20.25">
            <param key="origId" value="292_-1"/>
        </lane>
    </edge>
    <edge id=":258_27" function="internal">
        <lane id=":258_27_0" index="0" disallow="pedestrian tram rail_urban rail rail_electric rail_fast ship cable_car subway" speed="8.80" length="13.73" width="3.50" shape="488.71,29.67 492.24,31.95 494.03,35.75 494.09,41.07">
            <param key="origId" value="261_-1"/>
        </lane>
    </edge>
    <edge id=":258_18" function="internal">
        <lane id=":258_18_0" index="0" allow="pedestrian" speed="5.05" length="5.97" width="2.00" shape="486.78,40.10 486.76,38.43 486.20,37.24 485.09,36.53 483.44,36.29">
            <param key="origId" value="259_-2"/>
        </lane>
        <lane id=":258_18_1" index="1" disallow="all" speed="5.70" length="8.30" width="0.63" shape="488.08,40.27 488.06,37.95 487.27,36.30 485.74,35.31 483.44,34.98">
            <param key="origId" value="259_-1"/>
        </lane>
    </edge>
    <edge id=":258_20" function="internal">
        <lane id=":258_20_0" index="0" disallow="all" speed="17.88" length="20.54" width="0.50" shape="488.64,40.35 491.34,19.99">
            <param key="origId" value="272_-2"/>
        </lane>
    </edge>
    <edge id=":258_21" function="internal">
        <lane id=":258_21_0" index="0" disallow="pedestrian tram rail_urban rail rail_electric rail_fast ship cable_car subway" speed="7.34" length="12.85" width="3.50" shape="490.63,40.61 490.58,37.02 489.37,34.46 486.99,32.92 483.44,32.41">
            <param key="origId" value="260_-1"/>
        </lane>
    </edge>
    <edge id=":258_22" function="internal">
        <lane id=":258_22_0" index="0" disallow="pedestrian tram rail_urban rail rail_electric rail_fast ship cable_car subway" speed="17.88" length="20.54" width="3.50" shape="490.63,40.61 493.33,20.25">
            <param key="origId" value="272_-1"/>
        </lane>
    </edge>
    <edge id=":258_23" function="internal">
        <lane id=":258_23_0" index="0" disallow="pedestrian tram rail_urban rail rail_electric rail_fast ship cable_car subway" speed="9.84" length="19.71" width="3.50" shape="490.63,40.61 492.04,35.49 494.74,31.83 498.72,29.64 503.98,28.91">
            <param key="origId" value="279_-1"/>
        </lane>
    </edge>
    <edge id=":26.begin_0" function="internal">
        <lane id=":26.begin_0_0" index="0" disallow="pedestrian tram rail_urban rail rail_electric rail_fast ship cable_car subway" speed="3.91" length="5.47" width="3.99" shape="327.67,278.64 326.74,280.04 325.80,280.51 324.86,280.05 323.93,278.64"/>
    </edge>
    <edge id=":309_0" function="internal">
        <lane id=":309_0_0" index="0" allow="pedestrian" speed="5.11" length="5.54" width="2.00" shape="73.87,36.29 72.40,36.51 71.35,37.17 70.72,38.26 70.50,39.79">
            <param key="origId" value="321_-2"/>
        </lane>
        <lane id=":309_0_1" index="1" disallow="all" speed="5.76" length="7.65" width="0.63" shape="73.87,34.98 71.83,35.28 70.37,36.18 69.49,37.68 69.18,39.79">
            <param key="origId" value="321_-1"/>
        </lane>
    </edge>
    <edge id=":309_2" function="internal">
        <lane id=":309_2_0" index="0" disallow="all" speed="17.88" length="36.00" width="0.50" shape="73.87,34.41 37.87,34.41">
            <param key="origId" value="333_2"/>
        </lane>
    </edge>
    <edge id=":309_3" function="internal">
        <lane id=":309_3_0" index="0" disallow="pedestrian tram rail_urban rail rail_electric rail_fast ship cable_car subway" speed="7.49" length="12.18" width="3.50" shape="73.87,32.41 70.49,32.87 68.07,34.25 66.62,36.55 66.12,39.78">
            <param key="origId" value="319_1"/>
        </lane>
    </edge>
    <edge id=":309_4" function="internal">
        <lane id=":309_4_0" index="0" disallow="pedestrian tram rail_urban rail rail_electric rail_fast ship cable_car subway" speed="17.88" length="36.00" width="3.50" shape="73.87,32.41 37.87,32.41">
            <param key="origId" value="333_1"/>
        </lane>
    </edge>
    <edge id=":309_5" function="internal">
        <lane id=":309_5_0" index="0" disallow="pedestrian tram rail_urban rail rail_electric rail_fast ship cable_car subway" speed="10.56" length="25.45" width="3.50" shape="73.87,32.41 67.07,31.48 59.99,29.04 54.43,25.58 52.19,21.61">
            <param key="origId" value="315_1"/>
        </lane>
    </edge>
    <edge id=":309_6" function="internal">